Version 4
SHEET 1 880 680
WIRE 32 80 -80 80
WIRE 160 80 112 80
WIRE -80 112 -80 80
WIRE 160 112 160 80
WIRE 400 112 272 112
WIRE 400 128 400 112
WIRE -80 208 -80 192
WIRE 32 208 -80 208
WIRE 160 208 160 192
WIRE 160 208 32 208
WIRE 272 208 272 192
WIRE 336 208 272 208
WIRE 400 208 400 192
WIRE 400 208 336 208
WIRE 32 224 32 208
WIRE 336 224 336 208
FLAG 32 224 0
FLAG 336 224 0
SYMBOL voltage -80 96 R0
WINDOW 123 24 124 Left 2
WINDOW 39 0 0 Left 0
SYMATTR Value2 AC 1
SYMATTR InstName V1
SYMATTR Value ""
SYMBOL res 128 64 R90
WINDOW 0 0 56 VBottom 2
WINDOW 3 32 56 VTop 2
SYMATTR InstName R
SYMATTR Value 1k
SYMBOL ind2 144 96 R0
SYMATTR InstName L1
SYMATTR Value 1
SYMATTR Type ind
SYMBOL ind2 288 96 M0
SYMATTR InstName L2
SYMATTR Value 1
SYMATTR Type ind
SYMBOL cap 384 128 R0
SYMATTR InstName C
SYMATTR Value 70p
TEXT -88 288 Left 2 !K9 L1 L2 1
TEXT -88 320 Left 2 !.ac oct 100 500k 20000k
